<?xml version="1.0" encoding="utf-8"?>
<!DOCTYPE population SYSTEM "http://www.matsim.org/files/dtd/population_v6.dtd">
<population><person id="4033413702"><plan selected="yes"><activity end_time="01:00:00" type="At Home" x="16139152.12640018" y="-4565640.335859579" /><leg mode="car" /><activity end_time="03:00:00" type="Go Home" x="16143413.866563164" y="-4566880.326179952" /></plan></person><person id="5128207730"><plan selected="yes"><activity end_time="01:00:00" type="At Home" x="16143376.329956448" y="-4565106.508224301" /><leg mode="car" /><activity end_time="03:00:00" type="Go Home" x="16143519.471934171" y="-4567163.8182031" /></plan></person><person id="3140140052"><plan selected="yes"><activity end_time="01:00:00" type="At Home" x="16142409.020126084" y="-4566303.091709707" /><leg mode="car" /><activity end_time="03:00:00" type="Go Home" x="16143906.038229506" y="-4566637.098626908" /></plan></person><person id="7085002094"><plan selected="yes"><activity end_time="01:00:00" type="At Home" x="16140357.955196852" y="-4561218.612795427" /><leg mode="car" /><activity end_time="03:00:00" type="Go Home" x="16142534.10949222" y="-4560735.322551084" /></plan></person><person id="8199555323"><plan selected="yes"><activity end_time="01:00:00" type="At Home" x="16142844.50259989" y="-4561257.238272819" /><leg mode="car" /><activity end_time="03:00:00" type="Go Home" x="16143087.009922398" y="-4561231.111962973" /></plan></person><person id="9198436291"><plan selected="yes"><activity end_time="01:00:00" type="At Home" x="16139152.411507795" y="-4567656.517243193" /><leg mode="car" /><activity end_time="03:00:00" type="Go Home" x="16143460.22564475" y="-4567164.963167366" /></plan></person><person id="1184934557"><plan selected="yes"><activity end_time="01:00:00" type="At Home" x="16143919.43050949" y="-4564132.336291801" /><leg mode="car" /><activity end_time="03:00:00" type="Go Home" x="16143498.547854353" y="-4566555.4376196815" /></plan></person><person id="5465210426"><plan selected="yes"><activity end_time="01:00:00" type="At Home" x="16140049.741095837" y="-4565423.920153733" /><leg mode="car" /><activity end_time="03:00:00" type="Go Home" x="16143817.518508216" y="-4567149.557593248" /></plan></person><person id="6487556086"><plan selected="yes"><activity end_time="01:00:00" type="At Home" x="16142235.083537031" y="-4562083.538035258" /><leg mode="car" /><activity end_time="03:00:00" type="Go Home" x="16142291.753660532" y="-4561024.718762836" /></plan></person><person id="3785258127"><plan selected="yes"><activity end_time="01:00:00" type="At Home" x="16144969.738603491" y="-4567240.073426744" /><leg mode="car" /><activity end_time="03:00:00" type="Go Home" x="16143892.98753232" y="-4566621.41805622" /></plan></person><person id="2664262968"><plan selected="yes"><activity end_time="01:00:00" type="At Home" x="16143201.91604883" y="-4568184.795084842" /><leg mode="car" /><activity end_time="03:00:00" type="Go Home" x="16143837.53449507" y="-4567226.9828152675" /></plan></person><person id="4986647628"><plan selected="yes"><activity end_time="01:00:00" type="At Home" x="16145170.133011267" y="-4564465.542450779" /><leg mode="car" /><activity end_time="03:00:00" type="Go Home" x="16143613.925357511" y="-4567192.194049637" /></plan></person><person id="6529437784"><plan selected="yes"><activity end_time="01:00:00" type="At Home" x="16144287.15010049" y="-4565436.944507804" /><leg mode="car" /><activity end_time="03:00:00" type="Go Home" x="16143248.890394544" y="-4566657.13228481" /></plan></person><person id="3445588906"><plan selected="yes"><activity end_time="01:00:00" type="At Home" x="16138862.078900054" y="-4561357.78799742" /><leg mode="car" /><activity end_time="03:00:00" type="Go Home" x="16142389.015150012" y="-4560905.241143492" /></plan></person><person id="7212754655"><plan selected="yes"><activity end_time="01:00:00" type="At Home" x="16144367.474204486" y="-4562631.744862361" /><leg mode="car" /><activity end_time="03:00:00" type="Go Home" x="16143042.742746154" y="-4560984.356452271" /></plan></person><person id="6430235240"><plan selected="yes"><activity end_time="01:00:00" type="At Home" x="16145581.431795476" y="-4568153.627164669" /><leg mode="car" /><activity end_time="03:00:00" type="Go Home" x="16143542.504650192" y="-4567149.814048787" /></plan></person><person id="9606908942"><plan selected="yes"><activity end_time="01:00:00" type="At Home" x="16141950.900670243" y="-4565374.348660498" /><leg mode="car" /><activity end_time="03:00:00" type="Go Home" x="16143312.52599358" y="-4567013.954949688" /></plan></person><person id="2925053942"><plan selected="yes"><activity end_time="01:00:00" type="At Home" x="16142891.760807531" y="-4564760.352307508" /><leg mode="car" /><activity end_time="03:00:00" type="Go Home" x="16143256.148671133" y="-4566947.045050774" /></plan></person><person id="7454130927"><plan selected="yes"><activity end_time="01:00:00" type="At Home" x="16145171.924563903" y="-4560253.393315004" /><leg mode="car" /><activity end_time="03:00:00" type="Go Home" x="16142542.284223147" y="-4561194.82707544" /></plan></person><person id="4769986276"><plan selected="yes"><activity end_time="01:00:00" type="At Home" x="16144525.049811304" y="-4561513.34424101" /><leg mode="car" /><activity end_time="03:00:00" type="Go Home" x="16143176.560529012" y="-4560812.185858139" /></plan></person><person id="3077121642"><plan selected="yes"><activity end_time="01:00:00" type="At Home" x="16140553.952528374" y="-4563249.43471795" /><leg mode="car" /><activity end_time="03:00:00" type="Go Home" x="16142949.32427521" y="-4560808.084840901" /></plan></person><person id="2370564387"><plan selected="yes"><activity end_time="01:00:00" type="At Home" x="16139284.772758596" y="-4561892.878327013" /><leg mode="car" /><activity end_time="03:00:00" type="Go Home" x="16143081.021632671" y="-4560890.766243225" /></plan></person><person id="8104494870"><plan selected="yes"><activity end_time="01:00:00" type="At Home" x="16142347.903649744" y="-4560002.0497277845" /><leg mode="car" /><activity end_time="03:00:00" type="Go Home" x="16142720.049091384" y="-4560911.053049415" /></plan></person><person id="6652803185"><plan selected="yes"><activity end_time="01:00:00" type="At Home" x="16140856.77057005" y="-4560251.426530157" /><leg mode="car" /><activity end_time="03:00:00" type="Go Home" x="16143334.039676527" y="-4560742.922525833" /></plan></person><person id="2844236000"><plan selected="yes"><activity end_time="01:00:00" type="At Home" x="16138908.148190083" y="-4564656.821014248" /><leg mode="car" /><activity end_time="03:00:00" type="Go Home" x="16143014.09595382" y="-4561146.272522745" /></plan></person><person id="7759432566"><plan selected="yes"><activity end_time="01:00:00" type="At Home" x="16139359.439903567" y="-4564895.661144932" /><leg mode="car" /><activity end_time="03:00:00" type="Go Home" x="16143884.174696077" y="-4567349.68612056" /></plan></person><person id="3595794130"><plan selected="yes"><activity end_time="01:00:00" type="At Home" x="16138434.763370575" y="-4561956.79532153" /><leg mode="car" /><activity end_time="03:00:00" type="Go Home" x="16142854.98408117" y="-4561189.385393513" /></plan></person><person id="1755606860"><plan selected="yes"><activity end_time="01:00:00" type="At Home" x="16141368.502517756" y="-4565118.131542314" /><leg mode="car" /><activity end_time="03:00:00" type="Go Home" x="16143679.718599344" y="-4566936.27654741" /></plan></person><person id="2600699170"><plan selected="yes"><activity end_time="01:00:00" type="At Home" x="16140232.687620938" y="-4568107.553664972" /><leg mode="car" /><activity end_time="03:00:00" type="Go Home" x="16143440.069651889" y="-4567216.080205767" /></plan></person><person id="2774780757"><plan selected="yes"><activity end_time="01:00:00" type="At Home" x="16138711.32809902" y="-4567605.692708345" /><leg mode="car" /><activity end_time="03:00:00" type="Go Home" x="16143713.077749494" y="-4567322.200322216" /></plan></person><person id="4165476063"><plan selected="yes"><activity end_time="01:00:00" type="At Home" x="16139651.698089855" y="-4563982.432101183" /><leg mode="car" /><activity end_time="03:00:00" type="Go Home" x="16142708.11962917" y="-4560978.769796594" /></plan></person><person id="6210534897"><plan selected="yes"><activity end_time="01:00:00" type="At Home" x="16140423.70135676" y="-4560905.777211425" /><leg mode="car" /><activity end_time="03:00:00" type="Go Home" x="16142614.751209754" y="-4561275.05418934" /></plan></person><person id="9153495307"><plan selected="yes"><activity end_time="01:00:00" type="At Home" x="16144258.497367838" y="-4560787.771894153" /><leg mode="car" /><activity end_time="03:00:00" type="Go Home" x="16143254.815987315" y="-4560962.4846114945" /></plan></person><person id="6201184218"><plan selected="yes"><activity end_time="01:00:00" type="At Home" x="16143473.770217774" y="-4561265.91671328" /><leg mode="car" /><activity end_time="03:00:00" type="Go Home" x="16142574.281206882" y="-4561305.896780753" /></plan></person><person id="6346213659"><plan selected="yes"><activity end_time="01:00:00" type="At Home" x="16144169.607579922" y="-4565286.9244404845" /><leg mode="car" /><activity end_time="03:00:00" type="Go Home" x="16143311.829604482" y="-4567289.606693679" /></plan></person><person id="5411255313"><plan selected="yes"><activity end_time="01:00:00" type="At Home" x="16138924.168104192" y="-4565165.758541289" /><leg mode="car" /><activity end_time="03:00:00" type="Go Home" x="16143353.308069823" y="-4566855.649197167" /></plan></person><person id="4451296256"><plan selected="yes"><activity end_time="01:00:00" type="At Home" x="16144603.076746307" y="-4565195.671662009" /><leg mode="car" /><activity end_time="03:00:00" type="Go Home" x="16143490.119507877" y="-4566814.651541721" /></plan></person><person id="6706010096"><plan selected="yes"><activity end_time="01:00:00" type="At Home" x="16138662.657462163" y="-4568179.1809157105" /><leg mode="car" /><activity end_time="03:00:00" type="Go Home" x="16143228.041796483" y="-4567204.997946609" /></plan></person><person id="6430553762"><plan selected="yes"><activity end_time="01:00:00" type="At Home" x="16145778.924048752" y="-4564348.476551596" /><leg mode="car" /><activity end_time="03:00:00" type="Go Home" x="16143362.49124864" y="-4566637.608437355" /></plan></person><person id="1880218553"><plan selected="yes"><activity end_time="01:00:00" type="At Home" x="16139304.429901253" y="-4568307.09114878" /><leg mode="car" /><activity end_time="03:00:00" type="Go Home" x="16143653.668155793" y="-4566860.154452721" /></plan></person><person id="3456277628"><plan selected="yes"><activity end_time="01:00:00" type="At Home" x="16141512.883035101" y="-4560078.634990829" /><leg mode="car" /><activity end_time="03:00:00" type="Go Home" x="16142716.341272159" y="-4561141.098811865" /></plan></person><person id="5913482933"><plan selected="yes"><activity end_time="01:00:00" type="At Home" x="16140519.74248031" y="-4562844.983284039" /><leg mode="car" /><activity end_time="03:00:00" type="Go Home" x="16143202.824184867" y="-4560884.868322029" /></plan></person><person id="9503105647"><plan selected="yes"><activity end_time="01:00:00" type="At Home" x="16142609.907475833" y="-4567495.937409974" /><leg mode="car" /><activity end_time="03:00:00" type="Go Home" x="16143369.07401693" y="-4567038.3760458855" /></plan></person><person id="8767655155"><plan selected="yes"><activity end_time="01:00:00" type="At Home" x="16138891.66757962" y="-4567746.0829646485" /><leg mode="car" /><activity end_time="03:00:00" type="Go Home" x="16143928.47074626" y="-4566598.440145253" /></plan></person><person id="7766585558"><plan selected="yes"><activity end_time="01:00:00" type="At Home" x="16144851.089715142" y="-4561169.781962584" /><leg mode="car" /><activity end_time="03:00:00" type="Go Home" x="16143225.765688792" y="-4560901.870164823" /></plan></person><person id="1523276067"><plan selected="yes"><activity end_time="01:00:00" type="At Home" x="16142773.451524263" y="-4563878.936004924" /><leg mode="car" /><activity end_time="03:00:00" type="Go Home" x="16142961.478477785" y="-4561305.510396863" /></plan></person><person id="2228903390"><plan selected="yes"><activity end_time="01:00:00" type="At Home" x="16141587.386097975" y="-4565136.911711257" /><leg mode="car" /><activity end_time="03:00:00" type="Go Home" x="16144022.639068559" y="-4566850.896337205" /></plan></person><person id="9436032515"><plan selected="yes"><activity end_time="01:00:00" type="At Home" x="16139551.261202302" y="-4565237.273129383" /><leg mode="car" /><activity end_time="03:00:00" type="Go Home" x="16143386.80364574" y="-4567299.7768199" /></plan></person><person id="7768119328"><plan selected="yes"><activity end_time="01:00:00" type="At Home" x="16141386.35033189" y="-4560675.70661816" /><leg mode="car" /><activity end_time="03:00:00" type="Go Home" x="16143017.031282654" y="-4560839.6459555235" /></plan></person><person id="2787495968"><plan selected="yes"><activity end_time="01:00:00" type="At Home" x="16140291.82850828" y="-4567489.325860562" /><leg mode="car" /><activity end_time="03:00:00" type="Go Home" x="16143227.068699598" y="-4567379.710056565" /></plan></person><person id="7428907329"><plan selected="yes"><activity end_time="01:00:00" type="At Home" x="16140873.410863603" y="-4568031.408377056" /><leg mode="car" /><activity end_time="03:00:00" type="Go Home" x="16143537.059804255" y="-4567072.257747127" /></plan></person><person id="2422348757"><plan selected="yes"><activity end_time="01:00:00" type="At Home" x="16144515.83270318" y="-4568432.6634660745" /><leg mode="car" /><activity end_time="03:00:00" type="Go Home" x="16143925.117611384" y="-4566674.423392494" /></plan></person><person id="9406336380"><plan selected="yes"><activity end_time="01:00:00" type="At Home" x="16140975.36130548" y="-4562084.22901647" /><leg mode="car" /><activity end_time="03:00:00" type="Go Home" x="16143205.633416185" y="-4561261.32085162" /></plan></person><person id="4728688829"><plan selected="yes"><activity end_time="01:00:00" type="At Home" x="16144030.501812307" y="-4567277.288806196" /><leg mode="car" /><activity end_time="03:00:00" type="Go Home" x="16143723.888002548" y="-4566795.123382314" /></plan></person><person id="3862269839"><plan selected="yes"><activity end_time="01:00:00" type="At Home" x="16144825.375275759" y="-4567418.802117839" /><leg mode="car" /><activity end_time="03:00:00" type="Go Home" x="16143688.047710732" y="-4566839.712115517" /></plan></person><person id="7854305592"><plan selected="yes"><activity end_time="01:00:00" type="At Home" x="16145335.600986965" y="-4562218.999496049" /><leg mode="car" /><activity end_time="03:00:00" type="Go Home" x="16142348.986634927" y="-4561174.801295937" /></plan></person><person id="9923582650"><plan selected="yes"><activity end_time="01:00:00" type="At Home" x="16138408.246383317" y="-4567895.845918797" /><leg mode="car" /><activity end_time="03:00:00" type="Go Home" x="16143578.053453486" y="-4566841.4767954275" /></plan></person><person id="4020717824"><plan selected="yes"><activity end_time="01:00:00" type="At Home" x="16139865.022583479" y="-4567050.4663940845" /><leg mode="car" /><activity end_time="03:00:00" type="Go Home" x="16143618.933395214" y="-4566675.2275411775" /></plan></person><person id="7879894692"><plan selected="yes"><activity end_time="01:00:00" type="At Home" x="16139341.427166175" y="-4560706.96236971" /><leg mode="car" /><activity end_time="03:00:00" type="Go Home" x="16143031.810090594" y="-4560838.866991721" /></plan></person><person id="7186921144"><plan selected="yes"><activity end_time="01:00:00" type="At Home" x="16143830.697200442" y="-4560370.662254365" /><leg mode="car" /><activity end_time="03:00:00" type="Go Home" x="16142414.789471518" y="-4561330.161294632" /></plan></person><person id="1106270311"><plan selected="yes"><activity end_time="01:00:00" type="At Home" x="16143658.796328705" y="-4562840.315052141" /><leg mode="car" /><activity end_time="03:00:00" type="Go Home" x="16143132.657153755" y="-4560957.951229687" /></plan></person><person id="2936155366"><plan selected="yes"><activity end_time="01:00:00" type="At Home" x="16142990.324339418" y="-4567146.386052925" /><leg mode="car" /><activity end_time="03:00:00" type="Go Home" x="16143236.67722774" y="-4566624.1717585595" /></plan></person><person id="4329866146"><plan selected="yes"><activity end_time="01:00:00" type="At Home" x="16142602.13307615" y="-4565922.061901874" /><leg mode="car" /><activity end_time="03:00:00" type="Go Home" x="16143781.723254813" y="-4567352.519480199" /></plan></person><person id="2953290379"><plan selected="yes"><activity end_time="01:00:00" type="At Home" x="16139130.17119722" y="-4567588.570264316" /><leg mode="car" /><activity end_time="03:00:00" type="Go Home" x="16143652.593557999" y="-4566547.279630442" /></plan></person><person id="5618087133"><plan selected="yes"><activity end_time="01:00:00" type="At Home" x="16143409.70486717" y="-4560777.316489152" /><leg mode="car" /><activity end_time="03:00:00" type="Go Home" x="16143336.734424584" y="-4560759.405191554" /></plan></person><person id="4392960343"><plan selected="yes"><activity end_time="01:00:00" type="At Home" x="16144798.749864426" y="-4560931.947246191" /><leg mode="car" /><activity end_time="03:00:00" type="Go Home" x="16143022.467825726" y="-4560898.789247385" /></plan></person><person id="8588995031"><plan selected="yes"><activity end_time="01:00:00" type="At Home" x="16139022.690763405" y="-4566670.037282863" /><leg mode="car" /><activity end_time="03:00:00" type="Go Home" x="16143919.830947233" y="-4567362.544118042" /></plan></person><person id="1495490186"><plan selected="yes"><activity end_time="01:00:00" type="At Home" x="16139668.018187666" y="-4563766.880664474" /><leg mode="car" /><activity end_time="03:00:00" type="Go Home" x="16142582.84303097" y="-4561123.842671377" /></plan></person><person id="1545213837"><plan selected="yes"><activity end_time="01:00:00" type="At Home" x="16139770.990840472" y="-4568572.850970087" /><leg mode="car" /><activity end_time="03:00:00" type="Go Home" x="16143770.843506187" y="-4566934.405410434" /></plan></person><person id="6578606971"><plan selected="yes"><activity end_time="01:00:00" type="At Home" x="16140685.125455823" y="-4562725.766870017" /><leg mode="car" /><activity end_time="03:00:00" type="Go Home" x="16143206.959197372" y="-4561105.480458392" /></plan></person><person id="8949797432"><plan selected="yes"><activity end_time="01:00:00" type="At Home" x="16140608.912354713" y="-4560974.328905897" /><leg mode="car" /><activity end_time="03:00:00" type="Go Home" x="16142641.636406144" y="-4561285.066623301" /></plan></person><person id="2350582283"><plan selected="yes"><activity end_time="01:00:00" type="At Home" x="16145347.671905294" y="-4564940.976720628" /><leg mode="car" /><activity end_time="03:00:00" type="Go Home" x="16144005.036924757" y="-4566656.264012915" /></plan></person><person id="7958719528"><plan selected="yes"><activity end_time="01:00:00" type="At Home" x="16144605.51456194" y="-4567374.252315812" /><leg mode="car" /><activity end_time="03:00:00" type="Go Home" x="16143593.985253168" y="-4566538.340001657" /></plan></person><person id="1953383720"><plan selected="yes"><activity end_time="01:00:00" type="At Home" x="16144676.169953281" y="-4565895.908587715" /><leg mode="car" /><activity end_time="03:00:00" type="Go Home" x="16143264.668494819" y="-4567326.598305226" /></plan></person><person id="3299743638"><plan selected="yes"><activity end_time="01:00:00" type="At Home" x="16142606.306717142" y="-4560184.860823647" /><leg mode="car" /><activity end_time="03:00:00" type="Go Home" x="16143143.300106782" y="-4561183.328364881" /></plan></person><person id="8367782369"><plan selected="yes"><activity end_time="01:00:00" type="At Home" x="16141341.807350967" y="-4565360.608223435" /><leg mode="car" /><activity end_time="03:00:00" type="Go Home" x="16143657.569336936" y="-4566965.44905095" /></plan></person><person id="5811114565"><plan selected="yes"><activity end_time="01:00:00" type="At Home" x="16144005.779722001" y="-4563461.911403365" /><leg mode="car" /><activity end_time="03:00:00" type="Go Home" x="16143247.74622489" y="-4560875.088377214" /></plan></person><person id="6421965287"><plan selected="yes"><activity end_time="01:00:00" type="At Home" x="16144289.370865112" y="-4564224.8583005015" /><leg mode="car" /><activity end_time="03:00:00" type="Go Home" x="16143970.131773781" y="-4567009.548770714" /></plan></person><person id="1800923746"><plan selected="yes"><activity end_time="01:00:00" type="At Home" x="16143918.145654723" y="-4561395.628142166" /><leg mode="car" /><activity end_time="03:00:00" type="Go Home" x="16142882.583650017" y="-4561098.979864102" /></plan></person><person id="2805242022"><plan selected="yes"><activity end_time="01:00:00" type="At Home" x="16139159.36720731" y="-4561833.113369601" /><leg mode="car" /><activity end_time="03:00:00" type="Go Home" x="16142807.004266175" y="-4560829.541429558" /></plan></person><person id="3877671486"><plan selected="yes"><activity end_time="01:00:00" type="At Home" x="16145786.833226327" y="-4568538.781704667" /><leg mode="car" /><activity end_time="03:00:00" type="Go Home" x="16143975.84354228" y="-4566893.729445371" /></plan></person><person id="2780798183"><plan selected="yes"><activity end_time="01:00:00" type="At Home" x="16144887.961769214" y="-4559622.433870159" /><leg mode="car" /><activity end_time="03:00:00" type="Go Home" x="16142541.45203985" y="-4560816.909432633" /></plan></person><person id="8241707900"><plan selected="yes"><activity end_time="01:00:00" type="At Home" x="16144234.071912067" y="-4559919.128107535" /><leg mode="car" /><activity end_time="03:00:00" type="Go Home" x="16142308.591411527" y="-4561014.688408234" /></plan></person><person id="3688530009"><plan selected="yes"><activity end_time="01:00:00" type="At Home" x="16145537.630359642" y="-4560647.4467905825" /><leg mode="car" /><activity end_time="03:00:00" type="Go Home" x="16143074.097256249" y="-4560888.277340291" /></plan></person><person id="1637053945"><plan selected="yes"><activity end_time="01:00:00" type="At Home" x="16144921.62023149" y="-4559683.896148892" /><leg mode="car" /><activity end_time="03:00:00" type="Go Home" x="16142631.948493917" y="-4561198.523636327" /></plan></person><person id="5444927919"><plan selected="yes"><activity end_time="01:00:00" type="At Home" x="16143362.530286994" y="-4566826.849103887" /><leg mode="car" /><activity end_time="03:00:00" type="Go Home" x="16143454.901565222" y="-4567009.041173033" /></plan></person><person id="6425291760"><plan selected="yes"><activity end_time="01:00:00" type="At Home" x="16141550.638681471" y="-4563790.534346795" /><leg mode="car" /><activity end_time="03:00:00" type="Go Home" x="16143171.553202782" y="-4561227.579994194" /></plan></person><person id="2171584300"><plan selected="yes"><activity end_time="01:00:00" type="At Home" x="16139310.63534622" y="-4568398.465722345" /><leg mode="car" /><activity end_time="03:00:00" type="Go Home" x="16143833.299145177" y="-4567052.083845837" /></plan></person><person id="4119831178"><plan selected="yes"><activity end_time="01:00:00" type="At Home" x="16141900.26235324" y="-4568214.10616496" /><leg mode="car" /><activity end_time="03:00:00" type="Go Home" x="16143881.16518146" y="-4567020.973760213" /></plan></person><person id="2906340478"><plan selected="yes"><activity end_time="01:00:00" type="At Home" x="16140560.551887747" y="-4568387.012747043" /><leg mode="car" /><activity end_time="03:00:00" type="Go Home" x="16143291.756964313" y="-4567127.845060699" /></plan></person><person id="9821116572"><plan selected="yes"><activity end_time="01:00:00" type="At Home" x="16143651.731992561" y="-4562578.89895581" /><leg mode="car" /><activity end_time="03:00:00" type="Go Home" x="16143193.59550827" y="-4561057.964516963" /></plan></person><person id="6471095217"><plan selected="yes"><activity end_time="01:00:00" type="At Home" x="16145147.215556297" y="-4563768.727736625" /><leg mode="car" /><activity end_time="03:00:00" type="Go Home" x="16143565.041511334" y="-4567087.295787098" /></plan></person><person id="5255976076"><plan selected="yes"><activity end_time="01:00:00" type="At Home" x="16141463.025478104" y="-4568042.460041056" /><leg mode="car" /><activity end_time="03:00:00" type="Go Home" x="16143602.615220651" y="-4566860.333779952" /></plan></person><person id="8768135955"><plan selected="yes"><activity end_time="01:00:00" type="At Home" x="16139374.244387966" y="-4560744.511536388" /><leg mode="car" /><activity end_time="03:00:00" type="Go Home" x="16143008.342450524" y="-4560789.585839134" /></plan></person><person id="5059853067"><plan selected="yes"><activity end_time="01:00:00" type="At Home" x="16141085.630842835" y="-4565625.226578477" /><leg mode="car" /><activity end_time="03:00:00" type="Go Home" x="16143821.567004964" y="-4567031.246193029" /></plan></person><person id="7861296008"><plan selected="yes"><activity end_time="01:00:00" type="At Home" x="16139035.189229472" y="-4564106.641309637" /><leg mode="car" /><activity end_time="03:00:00" type="Go Home" x="16142733.382710673" y="-4560904.075398632" /></plan></person><person id="6719095285"><plan selected="yes"><activity end_time="01:00:00" type="At Home" x="16139115.822672585" y="-4568505.466960549" /><leg mode="car" /><activity end_time="03:00:00" type="Go Home" x="16143995.64992965" y="-4567344.85821731" /></plan></person><person id="3637853149"><plan selected="yes"><activity end_time="01:00:00" type="At Home" x="16138523.039131636" y="-4563185.347524454" /><leg mode="car" /><activity end_time="03:00:00" type="Go Home" x="16142953.028658742" y="-4561060.298549893" /></plan></person><person id="2552966933"><plan selected="yes"><activity end_time="01:00:00" type="At Home" x="16142848.150767902" y="-4566971.398379232" /><leg mode="car" /><activity end_time="03:00:00" type="Go Home" x="16143258.527687801" y="-4566968.588143007" /></plan></person><person id="4203599103"><plan selected="yes"><activity end_time="01:00:00" type="At Home" x="16138432.275545686" y="-4561181.038531317" /><leg mode="car" /><activity end_time="03:00:00" type="Go Home" x="16142788.536310874" y="-4561105.45057896" /></plan></person><person id="4607471698"><plan selected="yes"><activity end_time="01:00:00" type="At Home" x="16139720.97687975" y="-4562805.689222737" /><leg mode="car" /><activity end_time="03:00:00" type="Go Home" x="16142431.49989961" y="-4561216.501430899" /></plan></person><person id="9606628940"><plan selected="yes"><activity end_time="01:00:00" type="At Home" x="16138485.761725096" y="-4560241.287946155" /><leg mode="car" /><activity end_time="03:00:00" type="Go Home" x="16142475.384182671" y="-4560872.842740602" /></plan></person><person id="3056108562"><plan selected="yes"><activity end_time="01:00:00" type="At Home" x="16139034.555921203" y="-4560540.222866483" /><leg mode="car" /><activity end_time="03:00:00" type="Go Home" x="16142889.140140623" y="-4561308.135269817" /></plan></person><person id="5771837558"><plan selected="yes"><activity end_time="01:00:00" type="At Home" x="16144900.00628195" y="-4560360.011364076" /><leg mode="car" /><activity end_time="03:00:00" type="Go Home" x="16143198.800436107" y="-4561148.972974934" /></plan></person><person id="7278141442"><plan selected="yes"><activity end_time="01:00:00" type="At Home" x="16144156.700995596" y="-4565577.913839889" /><leg mode="car" /><activity end_time="03:00:00" type="Go Home" x="16143996.111323938" y="-4567298.694441223" /></plan></person><person id="8379845894"><plan selected="yes"><activity end_time="01:00:00" type="At Home" x="16144556.768890679" y="-4567950.366439069" /><leg mode="car" /><activity end_time="03:00:00" type="Go Home" x="16143756.032231843" y="-4567234.869607474" /></plan></person><person id="4011715583"><plan selected="yes"><activity end_time="01:00:00" type="At Home" x="16143320.108133014" y="-4559665.519382312" /><leg mode="car" /><activity end_time="03:00:00" type="Go Home" x="16143022.3899467" y="-4560936.199670911" /></plan></person><person id="2269201899"><plan selected="yes"><activity end_time="01:00:00" type="At Home" x="16144071.478213977" y="-4567594.924227718" /><leg mode="car" /><activity end_time="03:00:00" type="Go Home" x="16143911.000624163" y="-4567291.845646373" /></plan></person><person id="8713910265"><plan selected="yes"><activity end_time="01:00:00" type="At Home" x="16139879.749967052" y="-4565497.604659308" /><leg mode="car" /><activity end_time="03:00:00" type="Go Home" x="16143985.558366904" y="-4566753.382925044" /></plan></person><person id="4387378807"><plan selected="yes"><activity end_time="01:00:00" type="At Home" x="16140291.09151461" y="-4564820.575307683" /><leg mode="car" /><activity end_time="03:00:00" type="Go Home" x="16143224.576533081" y="-4567029.9961616285" /></plan></person><person id="2314525815"><plan selected="yes"><activity end_time="01:00:00" type="At Home" x="16141249.411313731" y="-4562267.124069581" /><leg mode="car" /><activity end_time="03:00:00" type="Go Home" x="16142653.672147822" y="-4560782.404309029" /></plan></person><person id="5062715896"><plan selected="yes"><activity end_time="01:00:00" type="At Home" x="16142485.584788145" y="-4565819.075476155" /><leg mode="car" /><activity end_time="03:00:00" type="Go Home" x="16143315.35614559" y="-4566778.928320431" /></plan></person><person id="5897220276"><plan selected="yes"><activity end_time="01:00:00" type="At Home" x="16139584.561820928" y="-4567538.8243216425" /><leg mode="car" /><activity end_time="03:00:00" type="Go Home" x="16143843.326447021" y="-4566634.130022563