<?xml version="1.0" encoding="utf-8"?>
<!DOCTYPE population SYSTEM "http://www.matsim.org/files/dtd/population_v6.dtd">
<population><person id="6278097107"><plan selected="yes"><activity end_time="01:00:00" type="At Home" x="16139066.584433854" y="-4568745.157734486" /><leg mode="car" /><activity end_time="03:00:00" type="Go Home" x="16143670.661258472" y="-4566569.255241604" /></plan></person><person id="6952793368"><plan selected="yes"><activity end_time="01:00:00" type="At Home" x="16140582.391185142" y="-4562437.390044561" /><leg mode="car" /><activity end_time="03:00:00" type="Go Home" x="16143149.185611438" y="-4561195.900484835" /></plan></person><person id="1883539474"><plan selected="yes"><activity end_time="01:00:00" type="At Home" x="16142740.605465785" y="-4560310.780289167" /><leg mode="car" /><activity end_time="03:00:00" type="Go Home" x="16142837.441863254" y="-4561200.384409378" /></plan></person><person id="8240074370"><plan selected="yes"><activity end_time="01:00:00" type="At Home" x="16143251.427973375" y="-4561416.20481855" /><leg mode="car" /><activity end_time="03:00:00" type="Go Home" x="16142666.13752363" y="-4560954.522750939" /></plan></person><person id="9121963264"><plan selected="yes"><activity end_time="01:00:00" type="At Home" x="16140191.249022406" y="-4567776.443821834" /><leg mode="car" /><activity end_time="03:00:00" type="Go Home" x="16143324.901239937" y="-4567062.551871976" /></plan></person><person id="1396718827"><plan selected="yes"><activity end_time="01:00:00" type="At Home" x="16138838.10268795" y="-4559993.706721512" /><leg mode="car" /><activity end_time="03:00:00" type="Go Home" x="16142920.567505755" y="-4561250.039169532" /></plan></person><person id="5793586692"><plan selected="yes"><activity end_time="01:00:00" type="At Home" x="16139236.26948387" y="-4561364.6535161985" /><leg mode="car" /><activity end_time="03:00:00" type="Go Home" x="16142555.420180393" y="-4560874.351979429" /></plan></person><person id="8660329049"><plan selected="yes"><activity end_time="01:00:00" type="At Home" x="16143274.555339213" y="-4562428.300775799" /><leg mode="car" /><activity end_time="03:00:00" type="Go Home" x="16143223.013406787" y="-4561001.6460111495" /></plan></person><person id="4828966796"><plan selected="yes"><activity end_time="01:00:00" type="At Home" x="16144479.61387417" y="-4565219.297897695" /><leg mode="car" /><activity end_time="03:00:00" type="Go Home" x="16143363.625947308" y="-4567098.751688577" /></plan></person><person id="9504625316"><plan selected="yes"><activity end_time="01:00:00" type="At Home" x="16140486.223867338" y="-4568536.32245088" /><leg mode="car" /><activity end_time="03:00:00" type="Go Home" x="16143800.729758125" y="-4566548.388585174" /></plan></person><person id="2235570189"><plan selected="yes"><activity end_time="01:00:00" type="At Home" x="16143268.128945533" y="-4560666.372519837" /><leg mode="car" /><activity end_time="03:00:00" type="Go Home" x="16143253.073401771" y="-4561078.54808629" /></plan></person><person id="8268325605"><plan selected="yes"><activity end_time="01:00:00" type="At Home" x="16140393.632954514" y="-4561615.787298259" /><leg mode="car" /><activity end_time="03:00:00" type="Go Home" x="16143010.293538751" y="-4561324.738554782" /></plan></person><person id="8858840445"><plan selected="yes"><activity end_time="01:00:00" type="At Home" x="16143029.690148776" y="-4564413.671699723" /><leg mode="car" /><activity end_time="03:00:00" type="Go Home" x="16144003.870899525" y="-4567089.750821559" /></plan></person><person id="4500965908"><plan selected="yes"><activity end_time="01:00:00" type="At Home" x="16143249.688269584" y="-4562721.225562909" /><leg mode="car" /><activity end_time="03:00:00" type="Go Home" x="16143106.755764795" y="-4560771.572217958" /></plan></person><person id="3074170646"><plan selected="yes"><activity end_time="01:00:00" type="At Home" x="16144056.368780345" y="-4563620.859076304" /><leg mode="car" /><activity end_time="03:00:00" type="Go Home" x="16143053.863762025" y="-4560818.915598159" /></plan></person><person id="2272550655"><plan selected="yes"><activity end_time="01:00:00" type="At Home" x="16141762.349398809" y="-4564721.7470935015" /><leg mode="car" /><activity end_time="03:00:00" type="Go Home" x="16143574.283378443" y="-4567028.746715426" /></plan></person><person id="2464395064"><plan selected="yes"><activity end_time="01:00:00" type="At Home" x="16139723.667298017" y="-4567513.85790356" /><leg mode="car" /><activity end_time="03:00:00" type="Go Home" x="16143238.491193539" y="-4567304.608457051" /></plan></person><person id="8027818317"><plan selected="yes"><activity end_time="01:00:00" type="At Home" x="16141356.682272239" y="-4565286.518786751" /><leg mode="car" /><activity end_time="03:00:00" type="Go Home" x="16143730.342938686" y="-4567239.032131395" /></plan></person><person id="6327226146"><plan selected="yes"><activity end_time="01:00:00" type="At Home" x="16144425.181868019" y="-4561012.047646828" /><leg mode="car" /><activity end_time="03:00:00" type="Go Home" x="16143183.955624437" y="-4561141.167040562" /></plan></person><person id="1858971484"><plan selected="yes"><activity end_time="01:00:00" type="At Home" x="16139165.720215054" y="-4567703.264250664" /><leg mode="car" /><activity end_time="03:00:00" type="Go Home" x="16143870.74001214" y="-4566967.129181766" /></plan></person><person id="3971834829"><plan selected="yes"><activity end_time="01:00:00" type="At Home" x="16145487.502979819" y="-4560393.295330119" /><leg mode="car" /><activity end_time="03:00:00" type="Go Home" x="16142900.628439536" y="-4560958.16269165" /></plan></person><person id="7773540596"><plan selected="yes"><activity end_time="01:00:00" type="At Home" x="16141962.935944963" y="-4564678.613608241" /><leg mode="car" /><activity end_time="03:00:00" type="Go Home" x="16143936.253912251" y="-4567052.052983312" /></plan></person><person id="3057058996"><plan selected="yes"><activity end_time="01:00:00" type="At Home" x="16139212.487637855" y="-4566309.040664185" /><leg mode="car" /><activity end_time="03:00:00" type="Go Home" x="16143248.83022894" y="-4566810.177658888" /></plan></person><person id="2356430800"><plan selected="yes"><activity end_time="01:00:00" type="At Home" x="16141020.222765988" y="-4563361.208633523" /><leg mode="car" /><activity end_time="03:00:00" type="Go Home" x="16143169.385169763" y="-4560924.631266929" /></plan></person><person id="3595621965"><plan selected="yes"><activity end_time="01:00:00" type="At Home" x="16144681.048319615" y="-4566994.070768107" /><leg mode="car" /><activity end_time="03:00:00" type="Go Home" x="16143426.363469645" y="-4566671.082504452" /></plan></person><person id="4967662903"><plan selected="yes"><activity end_time="01:00:00" type="At Home" x="16141477.710457766" y="-4564434.81154786" /><leg mode="car" /><activity end_time="03:00:00" type="Go Home" x="16142300.483501546" y="-4560816.523958271" /></plan></person><person id="1266005463"><plan selected="yes"><activity end_time="01:00:00" type="At Home" x="16139820.393260308" y="-4561589.516573746" /><leg mode="car" /><activity end_time="03:00:00" type="Go Home" x="16143113.194713619" y="-4560842.190996596" /></plan></person><person id="5912505602"><plan selected="yes"><activity end_time="01:00:00" type="At Home" x="16138478.262159145" y="-4567608.543867533" /><leg mode="car" /><activity end_time="03:00:00" type="Go Home" x="16143716.381052615" y="-4567319.3188354755" /></plan></person><person id="5160148819"><plan selected="yes"><activity end_time="01:00:00" type="At Home" x="16144398.860401664" y="-4567351.177779469" /><leg mode="car" /><activity end_time="03:00:00" type="Go Home" x="16143572.65362477" y="-4567239.956409486" /></plan></person><person id="4939705017"><plan selected="yes"><activity end_time="01:00:00" type="At Home" x="16138551.862055076" y="-4560860.415527" /><leg mode="car" /><activity end_time="03:00:00" type="Go Home" x="16143132.390189786" y="-4561055.685067888" /></plan></person><person id="2653025159"><plan selected="yes"><activity end_time="01:00:00" type="At Home" x="16138931.759517252" y="-4565183.577863942" /><leg mode="car" /><activity end_time="03:00:00" type="Go Home" x="16143612.688696567" y="-4566948.33689294" /></plan></person><person id="9053321808"><plan selected="yes"><activity end_time="01:00:00" type="At Home" x="16140432.601985542" y="-4563601.759669403" /><leg mode="car" /><activity end_time="03:00:00" type="Go Home" x="16143333.386593712" y="-4561040.7004190935" /></plan></person><person id="9411154170"><plan selected="yes"><activity end_time="01:00:00" type="At Home" x="16145579.31343608" y="-4567947.589983525" /><leg mode="car" /><activity end_time="03:00:00" type="Go Home" x="16143259.43450872" y="-4567011.665294171" /></plan></person><person id="9574123798"><plan selected="yes"><activity end_time="01:00:00" type="At Home" x="16138611.705766773" y="-4563835.082638842" /><leg mode="car" /><activity end_time="03:00:00" type="Go Home" x="16142458.340930138" y="-4561223.637083824" /></plan></person><person id="7638671242"><plan selected="yes"><activity end_time="01:00:00" type="At Home" x="16140653.344546549" y="-4560634.540995248" /><leg mode="car" /><activity end_time="03:00:00" type="Go Home" x="16143269.028484775" y="-4560940.387142144" /></plan></person><person id="6483499424"><plan selected="yes"><activity end_time="01:00:00" type="At Home" x="16138403.206341302" y="-4568586.819982193" /><leg mode="car" /><activity end_time="03:00:00" type="Go Home" x="16143906.503311994" y="-4567044.864743417" /></plan></person><person id="8521729638"><plan selected="yes"><activity end_time="01:00:00" type="At Home" x="16140869.467220165" y="-4567418.525739827" /><leg mode="car" /><activity end_time="03:00:00" type="Go Home" x="16143732.23419948" y="-4567265.376839908" /></plan></person><person id="6401228328"><plan selected="yes"><activity end_time="01:00:00" type="At Home" x="16139996.833713742" y="-4562113.533159843" /><leg mode="car" /><activity end_time="03:00:00" type="Go Home" x="16142526.889804304" y="-4561102.541767532" /></plan></person><person id="4494053007"><plan selected="yes"><activity end_time="01:00:00" type="At Home" x="16141574.643966977" y="-4566351.918226571" /><leg mode="car" /><activity end_time="03:00:00" type="Go Home" x="16143936.760579078" y="-4567344.28978128" /></plan></person><person id="8981684352"><plan selected="yes"><activity end_time="01:00:00" type="At Home" x="16140017.197092466" y="-4561859.608894473" /><leg mode="car" /><activity end_time="03:00:00" type="Go Home" x="16143208.81922583" y="-4560958.82682564" /></plan></person><person id="4795164240"><plan selected="yes"><activity end_time="01:00:00" type="At Home" x="16145771.82371247" y="-4563482.329395751" /><leg mode="car" /><activity end_time="03:00:00" type="Go Home" x="16143395.8061588" y="-4566734.5318315765" /></plan></person><person id="8314796272"><plan selected="yes"><activity end_time="01:00:00" type="At Home" x="16139821.645891706" y="-4565465.801052447" /><leg mode="car" /><activity end_time="03:00:00" type="Go Home" x="16143663.41959407" y="-4567083.986940532" /></plan></person><person id="3853522710"><plan selected="yes"><activity end_time="01:00:00" type="At Home" x="16144351.206178743" y="-4564802.188347723" /><leg mode="car" /><activity end_time="03:00:00" type="Go Home" x="16143394.013670376" y="-4567285.310111472" /></plan></person><person id="2659525587"><plan selected="yes"><activity end_time="01:00:00" type="At Home" x="16139182.379687367" y="-4567320.58483136" /><leg mode="car" /><activity end_time="03:00:00" type="Go Home" x="16143257.857659027" y="-4566778.750577247" /></plan></person><person id="2279341418"><plan selected="yes"><activity end_time="01:00:00" type="At Home" x="16139040.616276152" y="-4567026.512277963" /><leg mode="car" /><activity end_time="03:00:00" type="Go Home" x="16143722.829351287" y="-4567057.519347156" /></plan></person><person id="6264325527"><plan selected="yes"><activity end_time="01:00:00" type="At Home" x="16144410.6711527" y="-4560651.771040504" /><leg mode="car" /><activity end_time="03:00:00" type="Go Home" x="16143125.37594325" y="-4560810.798694649" /></plan></person><person id="6195042691"><plan selected="yes"><activity end_time="01:00:00" type="At Home" x="16139910.942249004" y="-4565559.5440359125" /><leg mode="car" /><activity end_time="03:00:00" type="Go Home" x="16143420.009439455" y="-4567212.434975228" /></plan></person><person id="1091734421"><plan selected="yes"><activity end_time="01:00:00" type="At Home" x="16138417.50151341" y="-4566617.977085103" /><leg mode="car" /><activity end_time="03:00:00" type="Go Home" x="16143808.057721797" y="-4566851.759209835" /></plan></person><person id="4661764781"><plan selected="yes"><activity end_time="01:00:00" type="At Home" x="16139650.888851106" y="-4566769.313925189" /><leg mode="car" /><activity end_time="03:00:00" type="Go Home" x="16143445.066003257" y="-4566904.337159468" /></plan></person><person id="9578391159"><plan selected="yes"><activity end_time="01:00:00" type="At Home" x="16145096.83726689" y="-4565536.433019489" /><leg mode="car" /><activity end_time="03:00:00" type="Go Home" x="16143342.446350476" y="-4566959.47031963" /></plan></person><person id="3294574785"><plan selected="yes"><activity end_time="01:00:00" type="At Home" x="16139092.634055888" y="-4559679.891379339" /><leg mode="car" /><activity end_time="03:00:00" type="Go Home" x="16142915.187342228" y="-4561160.060986764" /></plan></person><person id="4170647062"><plan selected="yes"><activity end_time="01:00:00" type="At Home" x="16138651.092376586" y="-4565330.33082499" /><leg mode="car" /><activity end_time="03:00:00" type="Go Home" x="16143911.46209026" y="-4567335.096168618" /></plan></person><person id="8467245024"><plan selected="yes"><activity end_time="01:00:00" type="At Home" x="16144184.047482025" y="-4563749.247977388" /><leg mode="car" /><activity end_time="03:00:00" type="Go Home" x="16143661.061840989" y="-4566564.698302167" /></plan></person><person id="4338655196"><plan selected="yes"><activity end_time="01:00:00" type="At Home" x="16142815.95397628" y="-4564056.404995285" /><leg mode="car" /><activity end_time="03:00:00" type="Go Home" x="16144025.748200143" y="-4567067.501979258" /></plan></person><person id="4661469327"><plan selected="yes"><activity end_time="01:00:00" type="At Home" x="16144749.945284378" y="-4565723.539823575" /><leg mode="car" /><activity end_time="03:00:00" type="Go Home" x="16143723.823099505" y="-4567310.132971575" /></plan></person><person id="9612118676"><plan selected="yes"><activity end_time="01:00:00" type="At Home" x="16141642.853241503" y="-4560461.143020271" /><leg mode="car" /><activity end_time="03:00:00" type="Go Home" x="16142925.186899547" y="-4560973.9532237295" /></plan></person><person id="5075283167"><plan selected="yes"><activity end_time="01:00:00" type="At Home" x="16143935.865056345" y="-4563457.436559254" /><leg mode="car" /><activity end_time="03:00:00" type="Go Home" x="16143139.765026672" y="-4560991.987219419" /></plan></person><person id="4838934982"><plan selected="yes"><activity end_time="01:00:00" type="At Home" x="16145277.870108094" y="-4563746.306159424" /><leg mode="car" /><activity end_time="03:00:00" type="Go Home" x="16143456.377578106" y="-4567030.113864798" /></plan></person><person id="8275476267"><plan selected="yes"><activity end_time="01:00:00" type="At Home" x="16140301.372260757" y="-4566492.824999611" /><leg mode="car" /><activity end_time="03:00:00" type="Go Home" x="16143560.034151843" y="-4567331.4532282045" /></plan></person><person id="4246192073"><plan selected="yes"><activity end_time="01:00:00" type="At Home" x="16140552.634997027" y="-4566425.582675068" /><leg mode="car" /><activity end_time="03:00:00" type="Go Home" x="16143763.4021309" y="-4567350.243579526" /></plan></person><person id="3634933047"><plan selected="yes"><activity end_time="01:00:00" type="At Home" x="16145476.16496606" y="-4566946.5983628975" /><leg mode="car" /><activity end_time="03:00:00" type="Go Home" x="16143222.104155483" y="-4566728.026302122" /></plan></person><person id="7836454037"><plan selected="yes"><activity end_time="01:00:00" type="At Home" x="16143263.042225692" y="-4565790.67655258" /><leg mode="car" /><activity end_time="03:00:00" type="Go Home" x="16143347.463159343" y="-4567287.721278869" /></plan></person><person id="5397748665"><plan selected="yes"><activity end_time="01:00:00" type="At Home" x="16138569.629059164" y="-4560874.749472554" /><leg mode="car" /><activity end_time="03:00:00" type="Go Home" x="16143109.040130254" y="-4561175.471684119" /></plan></person><person id="2610072114"><plan selected="yes"><activity end_time="01:00:00" type="At Home" x="16144753.920846172" y="-4559663.973125315" /><leg mode="car" /><activity end_time="03:00:00" type="Go Home" x="16143071.306873178" y="-4561013.849974327" /></plan></person><person id="2132139851"><plan selected="yes"><activity end_time="01:00:00" type="At Home" x="16141728.025645604" y="-4568427.030320228" /><leg mode="car" /><activity end_time="03:00:00" type="Go Home" x="16143314.18775838" y="-4566933.7697825525" /></plan></person><person id="6878383345"><plan selected="yes"><activity end_time="01:00:00" type="At Home" x="16141900.721369464" y="-4567497.858802214" /><leg mode="car" /><activity end_time="03:00:00" type="Go Home" x="16143962.439838566" y="-4566716.472991858" /></plan></person><person id="4728277693"><plan selected="yes"><activity end_time="01:00:00" type="At Home" x="16142046.399571752" y="-4562963.781104658" /><leg mode="car" /><activity end_time="03:00:00" type="Go Home" x="16143033.310207818" y="-4561236.246754927" /></plan></person><person id="9481917711"><plan selected="yes"><activity end_time="01:00:00" type="At Home" x="16143210.473970067" y="-4562290.7512568515" /><leg mode="car" /><activity end_time="03:00:00" type="Go Home" x="16142327.335957194" y="-4561053.221722892" /></plan></person><person id="3495736241"><plan selected="yes"><activity end_time="01:00:00" type="At Home" x="16145504.886405457" y="-4566840.633479756" /><leg mode="car" /><activity end_time="03:00:00" type="Go Home" x="16143397.79756361" y="-4566578.097237404" /></plan></person><person id="5372165650"><plan selected="yes"><activity end_time="01:00:00" type="At Home" x="16140657.813723853" y="-4561256.573180561" /><leg mode="car" /><activity end_time="03:00:00" type="Go Home" x="16142880.540651837" y="-4561068.466719816" /></plan></person><person id="1554567199"><plan selected="yes"><activity end_time="01:00:00" type="At Home" x="16141642.018000752" y="-4559929.287332707" /><leg mode="car" /><activity end_time="03:00:00" type="Go Home" x="16142753.147749104" y="-4561321.585955534" /></plan></person><person id="6211066443"><plan selected="yes"><activity end_time="01:00:00" type="At Home" x="16142520.078386698" y="-4564345.479899137" /><leg mode="car" /><activity end_time="03:00:00" type="Go Home" x="16143673.132688278" y="-4567161.806354678" /></plan></person><person id="9039520865"><plan selected="yes"><activity end_time="01:00:00" type="At Home" x="16145327.043094777" y="-4562156.011867171" /><leg mode="car" /><activity end_time="03:00:00" type="Go Home" x="16143347.705673615" y="-4560853.786163524" /></plan></person><person id="9656684200"><plan selected="yes"><activity end_time="01:00:00" type="At Home" x="16143541.023836052" y="-4562613.992681541" /><leg mode="car" /><activity end_time="03:00:00" type="Go Home" x="16143126.317040341" y="-4560858.577328377" /></plan></person><person id="9440390972"><plan selected="yes"><activity end_time="01:00:00" type="At Home" x="16141578.708316771" y="-4559845.574541489" /><leg mode="car" /><activity end_time="03:00:00" type="Go Home" x="16142742.874065274" y="-4560827.017476795" /></plan></person><person id="6943279419"><plan selected="yes"><activity end_time="01:00:00" type="At Home" x="16145072.360322252" y="-4564802.414751816" /><leg mode="car" /><activity end_time="03:00:00" type="Go Home" x="16143532.799295798" y="-4566643.496374457" /></plan></person><person id="1302451587"><plan selected="yes"><activity end_time="01:00:00" type="At Home" x="16139475.042579683" y="-4566438.206091845" /><leg mode="car" /><activity end_time="03:00:00" type="Go Home" x="16143535.082182435" y="-4566597.511388748" /></plan></person><person id="2799351288"><plan selected="yes"><activity end_time="01:00:00" type="At Home" x="16138692.040067801" y="-4565541.456075769" /><leg mode="car" /><activity end_time="03:00:00" type="Go Home" x="16143701.897109935" y="-4566927.557029641" /></plan></person><person id="3893396551"><plan selected="yes"><activity end_time="01:00:00" type="At Home" x="16138676.527108263" y="-4567683.65056841" /><leg mode="car" /><activity end_time="03:00:00" type="Go Home" x="16143450.69222408" y="-4567231.330865072" /></plan></person><person id="3559513118"><plan selected="yes"><activity end_time="01:00:00" type="At Home" x="16139382.769435328" y="-4561263.858102334" /><leg mode="car" /><activity end_time="03:00:00" type="Go Home" x="16143161.152438661" y="-4560824.928887567" /></plan></person><person id="2410303209"><plan selected="yes"><activity end_time="01:00:00" type="At Home" x="16142719.744886208" y="-4567920.406792998" /><leg mode="car" /><activity end_time="03:00:00" type="Go Home" x="16143501.013753632" y="-4566853.000710793" /></plan></person><person id="5247442610"><plan selected="yes"><activity end_time="01:00:00" type="At Home" x="16144046.193301568" y="-4563017.867908532" /><leg mode="car" /><activity end_time="03:00:00" type="Go Home" x="16142475.724424103" y="-4561084.668719016" /></plan></person><person id="4686760964"><plan selected="yes"><activity end_time="01:00:00" type="At Home" x="16145350.233757066" y="-4566924.587629993" /><leg mode="car" /><activity end_time="03:00:00" type="Go Home" x="16143247.145238679" y="-4567377.903281302" /></plan></person><person id="7736753410"><plan selected="yes"><activity end_time="01:00:00" type="At Home" x="16140166.707790177" y="-4562556.809499079" /><leg mode="car" /><activity end_time="03:00:00" type="Go Home" x="16143261.57042651" y="-4561082.005354721" /></plan></person><person id="8766543314"><plan selected="yes"><activity end_time="01:00:00" type="At Home" x="16139551.915633181" y="-4565808.48428868" /><leg mode="car" /><activity end_time="03:00:00" type="Go Home" x="16143772.605388487" y="-4566531.84395147" /></plan></person><person id="1914729383"><plan selected="yes"><activity end_time="01:00:00" type="At Home" x="16144251.724479863" y="-4561897.865667621" /><leg mode="car" /><activity end_time="03:00:00" type="Go Home" x="16143117.793705756" y="-4560889.915703448" /></plan></person><person id="8942492056"><plan selected="yes"><activity end_time="01:00:00" type="At Home" x="16138733.239887102" y="-4566726.205454456" /><leg mode="car" /><activity end_time="03:00:00" type="Go Home" x="16143270.181057042" y="-4566890.194872573" /></plan></person><person id="9173144966"><plan selected="yes"><activity end_time="01:00:00" type="At Home" x="16144151.540246729" y="-4560752.395683554" /><leg mode="car" /><activity end_time="03:00:00" type="Go Home" x="16142610.905851725" y="-4560891.144658425" /></plan></person><person id="7775619305"><plan selected="yes"><activity end_time="01:00:00" type="At Home" x="16139599.71836886" y="-4563917.886757753" /><leg mode="car" /><activity end_time="03:00:00" type="Go Home" x="16142577.622289136" y="-4560862.265874034" /></plan></person><person id="2224952221"><plan selected="yes"><activity end_time="01:00:00" type="At Home" x="16138807.007906701" y="-4559581.019400107" /><leg mode="car" /><activity end_time="03:00:00" type="Go Home" x="16142938.925920947" y="-4561309.176418091" /></plan></person><person id="5019228617"><plan selected="yes"><activity end_time="01:00:00" type="At Home" x="16140850.476365643" y="-4562256.37571637" /><leg mode="car" /><activity end_time="03:00:00" type="Go Home" x="16143223.729871085" y="-4560836.40040315" /></plan></person><person id="6705284430"><plan selected="yes"><activity end_time="01:00:00" type="At Home" x="16142780.644637145" y="-4562442.425508751" /><leg mode="car" /><activity end_time="03:00:00" type="Go Home" x="16143167.339704381" y="-4561139.758227922" /></plan></person><person id="7331307182"><plan selected="yes"><activity end_time="01:00:00" type="At Home" x="16141928.543355336" y="-4566825.628833254" /><leg mode="car" /><activity end_time="03:00:00" type="Go Home" x="16143707.574112903" y="-4567239.279961336" /></plan></person><person id="8542125620"><plan selected="yes"><activity end_time="01:00:00" type="At Home" x="16141169.544173712" y="-4560123.994945313" /><leg mode="car" /><activity end_time="03:00:00" type="Go Home" x="16142737.500656908" y="-4561011.9804930845" /></plan></person><person id="1615651452"><plan selected="yes"><activity end_time="01:00:00" type="At Home" x="16138742.30370753" y="-4562352.35959013" /><leg mode="car" /><activity end_time="03:00:00" type="Go Home" x="16142668.993293015" y="-4561062.8918435825" /></plan></person><person id="1073537734"><plan selected="yes"><activity end_time="01:00:00" type="At Home" x="16143185.749556217" y="-4566859.169750938" /><leg mode="car" /><activity end_time="03:00:00" type="Go Home" x="16143516.611258766" y="-4566936.751904076" /></plan></person><person id="3151992494"><plan selected="yes"><activity end_time="01:00:00" type="At Home" x="16140120.418607552" y="-4561241.412451908" /><leg mode="car" /><activity end_time="03:00:00" type="Go Home" x="16143068.956599407" y="-4560758.297771767" /></plan></person><person id="6756435582"><plan selected="yes"><activity end_time="01:00:00" type="At Home" x="16142459.86598036" y="-4563497.265514358" /><leg mode="car" /><activity end_time="03:00:00" type="Go Home" x="16143011.219125465" y="-4560854.555633785" /></plan></person><person id="2060741549"><plan selected="yes"><activity end_time="01:00:00" type="At Home" x="16139204.992432559" y="-4564872.287194109" /><leg mode="car" /><activity end_time="03:00:00" type="Go Home" x="16142300.626078757" y="-4561306.9298351165" /></plan></person><person id="9332017859"><plan selected="yes"><activity end_time="01:00:00" type="At Home" x="16140508.232051099" y="-4562659.118725729" /><leg mode="car" /><activity end_time="03:00:00" type="Go Home" x="16142819.219770452" y="-4560921.861242827" /></plan></person><person id="7840050313"><plan selected="yes"><activity end_time="01:00:00" type="At Home" x="16141464.057748476" y="-4562831.36505741" /><leg mode="car" /><activity end_time="03:00:00" type="Go Home" x="16142676.469913246" y="-4561118.576837113" /></plan></person><person id="3140044582"><plan selected="yes"><activity end_time="01:00:00" type="At Home" x="16144921.91228957" y="-4566923.830659954" /><leg mode="car" /><activity end_time="03:00:00" type="Go Home" x="16143304.95223977" y="-4567092.919346505" /></plan></person><person id="9535874542"><plan selected="yes"><activity end_time="01:00:00" type="At Home" x="16142991.453954998" y="-4559991.960973714" /><leg mode="car" /><activity end_time="03:00:00" type="Go Home" x="16142969.729266994" y="-4560992.220868056" /></plan></person><person id="9244528803"><plan selected="yes"><activity end_time="01:00:00" type="At Home" x="16138570.24035895" y="-4568417.215061045" /><leg mode="car" /><activity end_time="03:00:00" type="Go Home" x="16143604.636628753" y="-4566743.333211152" /></plan></person><person id="8798407377"><plan selected="yes"><activity end_time="01:00:00" type="At Home" x="16141740.138486464" y="-4561366.372595107" /><leg mode="car" /><activity end_time="03:00:00" type="Go Home" x="16143220.109917397" y="-4560815.940836008" /></plan></person><person id="9098961608"><plan selected="yes"><activity end_time="01:00:00" type="At Home" x="16138424.069749935" y="-4559804.521291136" /><leg mode="car" /><activity end_time="03:00:00" type="Go Home" x="16143185.561060444" y="-4560798.188208846" /></plan></person><person id="3359596240"><plan selected="yes"><activity end_time="01:00:00" type="At Home" x="16138471.12979564" y="-4566646.156359505" /><leg mode="car" /><activity end_time="03:00:00" type="Go Home" x="16143555.710537326" y="-4567342.435264877" /></plan></person><person id="5507698579"><plan selected="yes"><activity end_time="01:00:00" type="At Home" x="16141215.74767007" y="-4563919.15989709" /><leg mode="car" /><activity end_time="03:00:00" type="Go Home" x="16143267.292203989" y="-4561186.958696142" /></plan></person><person id="7648630251"><plan selected="yes"><activity end_time="01:00:00" type="At Home" x="16142070.900713224" y="-4562929.354513525" /><leg mode="car" /><activity end_time="03:00:00" type="Go Home" x="16142920.658275649" y="-4560755.374183976" /></plan></person><person id="4733190469"><plan selected="yes"><activity end_time="01:00:00" type="At Home" x="16144271.808532547" y="-4564549.695045681" /><leg mode="car" /><activity end_time="03:00:00" type="Go Home" x="16143967.26583875" y="-4567010.921249347" /></plan></person><person id="9566705483"><plan selected="yes"><activity end_time="01:00:00" type="At Home" x="16145107.618289646" y="-4560118.588778387" /><leg mode="car" /><activity end_time="03:00:00" type="Go Home" x="16143225.753166012" y="-4561083.866924884" /></plan></person><person id="1512086774"><plan selected="yes"><activity end_time="01:00:00" type="At Home" x="16142048.927746689" y="-4568594.989635797" /><leg mode="car" /><activity end_time="03:00:00" type="Go Home" x="16143651.191771619" y="-4566845.839676411" /></plan></person><person id="3623492070"><plan selected="yes"><activity end_time="01:00:00" type="At Home" x="16139235.429757068" y="-4564895.55224152" /><leg mode="car" /><activity end_time="03:00:00" type="Go Home" x="16142875.844532976" y="-4561267.