<?xml version="1.0" encoding="utf-8"?>
<!DOCTYPE population SYSTEM "http://www.matsim.org/files/dtd/population_v6.dtd">

<population><person id="5962257328"><plan selected="yes"><activity end_time="01:00:00" type="At Home" x="16140879.5027833" y="-4564003.2412201185" /><leg mode="car" /><activity end_time="03:00:00" type="Go Home" x="16138391.493816681" y="-4564003.2412201185" /></plan></person><person id="3422119833"><plan selected="yes"><activity end_time="01:00:00" type="At Home" x="16141678.30774035" y="-4561451.516458603" /><leg mode="car" /><activity end_time="03:00:00" type="Go Home" x="16141678.30774035" y="-4559509.045550112" /></plan></person><person id="9114539614"><plan selected="yes"><activity end_time="01:00:00" type="At Home" x="16144080.285353413" y="-4564305.670590634" /><leg mode="car" /><activity end_time="03:00:00" type="Go Home" x="16145893.125058105" y="-4564305.670590634" /></plan></person><person id="5545734818"><plan selected="yes"><activity end_time="01:00:00" type="At Home" x="16144704.65843035" y="-4561221.882850517" /><leg mode="car" /><activity end_time="03:00:00" type="Go Home" x="16145893.125058105" y="-4561221.882850517" /></plan></person><person id="8041656226"><plan selected="yes"><activity end_time="01:00:00" type="At Home" x="16142264.304425437" y="-4567202.702011775" /><leg mode="car" /><activity end_time="03:00:00" type="Go Home" x="16142264.304425437" y="-4568758.170753347" /></plan></person><person id="6906407668"><plan selected="yes"><activity end_time="01:00:00" type="At Home" x="16142224.232917799" y="-4566668.51002624" /><leg mode="car" /><activity end_time="03:00:00" type="Go Home" x="16142224.232917799" y="-4568758.170753347" /></plan></person><person id="7583919244"><plan selected="yes"><activity end_time="01:00:00" type="At Home" x="16142856.580469968" y="-4562772.222284562" /><leg mode="car" /><activity end_time="03:00:00" type="Go Home" x="16145893.125058105" y="-4562772.222284562" /></plan></person><person id="2638150367"><plan selected="yes"><activity end_time="01:00:00" type="At Home" x="16139716.567393128" y="-4561102.676554754" /><leg mode="car" /><activity end_time="03:00:00" type="Go Home" x="16138391.493816681" y="-4561102.676554754" /></plan></person><person id="8595537620"><plan selected="yes"><activity end_time="01:00:00" type="At Home" x="16144142.334164038" y="-4562995.140742107" /><leg mode="car" /><activity end_time="03:00:00" type="Go Home" x="16145893.125058105" y="-4562995.140742107" /></plan></person><person id="6879688414"><plan selected="yes"><activity end_time="01:00:00" type="At Home" x="16139896.709154544" y="-4568664.904325348" /><leg mode="car" /><activity end_time="03:00:00" type="Go Home" x="16139896.709154544" y="-4568758.170753347" /></plan></person></population>